#GMS MODFLOW Simulation
#09 April 2021
FREE
HDF5 1.0 -1 "test_trans.h5" "Arrays/ibound1" 1 0 100
-999.0
HDF5 1.0 -1 "test_trans.h5" "Arrays/StartHead1" 1 0 100
