#GMS MODFLOW Simulation
#13 April 2020
FREE
HDF5 1.0 -1 "6_months_run.h5" "Arrays/ibound1" 1 0 4096
-999.0
HDF5 1.0 -1 "6_months_run.h5" "Arrays/StartHead1" 1 0 4096
